MatpowerDataProcesssed/d_case14.m
% 01/10/12 File data originated from Matpower data file
% 

Bus.con = [ ...
      1        1     1.06        0    1    1;
      2        1    1.045 -0.086917    1    1;
      3        1     1.01 -0.22201    1    1;
      4        1    1.019 -0.18029    1    1;
      5        1     1.02 -0.15324    1    1;
      6        1     1.07 -0.24819    1    1;
      7        1    1.062 -0.23335    1    1;
      8        1     1.09 -0.23318    1    1;
      9        1    1.056 -0.26075    1    1;
     10        1    1.051 -0.26354    1    1;
     11        1    1.057 -0.25813    1    1;
     12        1    1.055 -0.26302    1    1;
     13        1     1.05 -0.26459    1    1;
     14        1    1.036 -0.27995    1    1;
   ];

SW.con = [ ...
      1      100        1     1.06        0      0.1        0     1.06     0.94    2.324 1 1  1;
   ];

PV.con = [ ...
   2      100        1      0.4    1.045      0.5     -0.4     1.06     0.94 1  1;
   3      100        1        0     1.01      0.4        0     1.06     0.94 1  1;
   6      100        1        0     1.07     0.24    -0.06     1.06     0.94 1  1;
   8      100        1        0     1.09     0.24    -0.06     1.06     0.94 1  1;
   ];

PQ.con = [ ...
   2 100        1    0.217    0.127     1.06     0.94 0 1;
   3 100        1    0.942     0.19     1.06     0.94 0 1;
   4 100        1    0.478   -0.039     1.06     0.94 0 1;
   5 100        1    0.076    0.016     1.06     0.94 0 1;
   6 100        1    0.112    0.075     1.06     0.94 0 1;
   9 100        1    0.295    0.166     1.06     0.94 0 1;
  10 100        1     0.09    0.058     1.06     0.94 0 1;
  11 100        1    0.035    0.018     1.06     0.94 0 1;
  12 100        1    0.061    0.016     1.06     0.94 0 1;
  13 100        1    0.135    0.058     1.06     0.94 0 1;
  14 100        1    0.149     0.05     1.06     0.94 0 1;
   7 100        1        0        0     1.06     0.94 0 1;
   ];

Shunt.con = [ ...
   9 100        1 60        0     0.19 1;
   ];

Line.con = [ ...
   1    2 100        1 60 0         0  0.01938  0.05917   0.0528        0        0       99        0        0  1;
   1    5 100        1 60 0         0  0.05403  0.22304   0.0492        0        0       99        0        0  1;
   2    3 100        1 60 0         0  0.04699  0.19797   0.0438        0        0       99        0        0  1;
   2    4 100        1 60 0         0  0.05811  0.17632    0.034        0        0       99        0        0  1;
   2    5 100        1 60 0         0  0.05695  0.17388   0.0346        0        0       99        0        0  1;
   3    4 100        1 60 0         0  0.06701  0.17103   0.0128        0        0       99        0        0  1;
   4    5 100        1 60 0         0  0.01335  0.04211        0        0        0       99        0        0  1;
   4    7 100        1 60 0         1        0  0.20912        0    0.978        0       99        0        0  1;
   4    9 100        1 60 0         1        0  0.55618        0    0.969        0       99        0        0  1;
   5    6 100        1 60 0         1        0  0.25202        0    0.932        0       99        0        0  1;
   6   11 100        1 60 0         0  0.09498   0.1989        0        0        0       99        0        0  1;
   6   12 100        1 60 0         0  0.12291  0.25581        0        0        0       99        0        0  1;
   6   13 100        1 60 0         0  0.06615  0.13027        0        0        0       99        0        0  1;
   7    8 100        1 60 0         0        0  0.17615        0        0        0       99        0        0  1;
   7    9 100        1 60 0         0        0  0.11001        0        0        0       99        0        0  1;
   9   10 100        1 60 0         0  0.03181   0.0845        0        0        0       99        0        0  1;
   9   14 100        1 60 0         0  0.12711  0.27038        0        0        0       99        0        0  1;
  10   11 100        1 60 0         0  0.08205  0.19207        0        0        0       99        0        0  1;
  12   13 100        1 60 0         0  0.22092  0.19988        0        0        0       99        0        0  1;
  13   14 100        1 60 0         0  0.17093  0.34802        0        0        0       99        0        0  1;
   ];

Supply.con = [ ...
   1       100        0    3.324        0        0        0       20 0.043029        0        0        0  1 0 1;
   2       100        0      1.4        0        0        0       20     0.25        0        0        0  1 0 1;
   3       100        0        1        0        0        0       40     0.01        0        0        0  1 0 1;
   6       100        0        1        0        0        0       40     0.01        0        0        0  1 0 1;
   8       100        0        1        0        0        0       40     0.01        0        0        0  1 0 1;
   ];

Bus.names = {...
      'Bus 1'; 'Bus 2'; 'Bus 3'; 'Bus 4'; 'Bus 5'; 
      'Bus 6'; 'Bus 7'; 'Bus 8'; 'Bus 9'; 'Bus 10'; 
      'Bus 11'; 'Bus 12'; 'Bus 13'; 'Bus 14'};

